@<TRIPOS>MOLECULE
*****
 8 7 0 0 0
SMALL
GASTEIGER

@<TRIPOS>ATOM
      1 C          -5.3868    2.2248    0.0000 C.3     1  UNL1       -0.0681
      2 C          -3.8501    2.2248    0.0000 C.3     1  UNL1       -0.0681
      3 H          -5.7676    3.0553    0.5985 H       1  UNL1        0.0227
      4 H          -5.7676    1.2911    0.4200 H       1  UNL1        0.0227
      5 H          -5.7676    2.3279   -1.0186 H       1  UNL1        0.0227
      6 H          -3.4693    2.1217    1.0186 H       1  UNL1        0.0227
      7 H          -3.4693    3.1584   -0.4200 H       1  UNL1        0.0227
      8 H          -3.4693    1.3942   -0.5985 H       1  UNL1        0.0227
@<TRIPOS>BOND
     1     1     2    1
     2     1     3    1
     3     1     4    1
     4     1     5    1
     5     2     6    1
     6     2     7    1
     7     2     8    1
